272
# Voronoi polycrystal with 1 grains
O  -4.05000000  -3.27357602  -4.93336733
O  -0.81000000  -3.27357602  -4.93336733
O  2.43000000  -3.27357602  -4.93336733
O  -2.43000000  -0.46765371  -4.93336733
O  0.81000000  -0.46765371  -4.93336733
O  4.05000000  -0.46765371  -4.93336733
O  -4.05000000  2.33826860  -4.93336733
O  -0.81000000  2.33826860  -4.93336733
O  2.43000000  2.33826860  -4.93336733
Zn  -4.05000000  -3.27357602  -1.68336733
O  -4.05000000  -3.27357602  0.26663267
Zn  -2.43000000  -2.33826859  -4.28336733
Zn  -0.81000000  -3.27357602  -1.68336733
O  -2.43000000  -2.33826859  -2.33336733
O  -0.81000000  -3.27357602  0.26663267
Zn  0.81000000  -2.33826859  -4.28336733
Zn  2.43000000  -3.27357602  -1.68336733
O  0.81000000  -2.33826859  -2.33336733
O  2.43000000  -3.27357602  0.26663267
Zn  4.05000000  -2.33826859  -4.28336733
O  4.05000000  -2.33826859  -2.33336733
Zn  -4.05000000  0.46765372  -4.28336733
Zn  -2.43000000  -0.46765371  -1.68336733
O  -4.05000000  0.46765372  -2.33336733
O  -2.43000000  -0.46765371  0.26663267
Zn  -0.81000000  0.46765372  -4.28336733
Zn  0.81000000  -0.46765371  -1.68336733
O  -0.81000000  0.46765372  -2.33336733
O  0.81000000  -0.46765371  0.26663267
Zn  2.43000000  0.46765372  -4.28336733
Zn  4.05000000  -0.46765371  -1.68336733
O  2.43000000  0.46765372  -2.33336733
O  4.05000000  -0.46765371  0.26663267
Zn  -4.05000000  2.33826860  -1.68336733
O  -4.05000000  2.33826860  0.26663267
Zn  -2.43000000  3.27357603  -4.28336733
Zn  -0.81000000  2.33826860  -1.68336733
O  -2.43000000  3.27357603  -2.33336733
O  -0.81000000  2.33826860  0.26663267
Zn  0.81000000  3.27357603  -4.28336733
Zn  2.43000000  2.33826860  -1.68336733
O  0.81000000  3.27357603  -2.33336733
O  2.43000000  2.33826860  0.26663267
Zn  4.05000000  3.27357603  -4.28336733
O  4.05000000  3.27357603  -2.33336733
Zn  -4.05000000  -3.27357602  3.51663267
Zn  -2.43000000  -2.33826859  0.91663267
Zn  -0.81000000  -3.27357602  3.51663267
O  -2.43000000  -2.33826859  2.86663267
Zn  0.81000000  -2.33826859  0.91663267
Zn  2.43000000  -3.27357602  3.51663267
O  0.81000000  -2.33826859  2.86663267
Zn  4.05000000  -2.33826859  0.91663267
O  4.05000000  -2.33826859  2.86663267
Zn  -4.05000000  0.46765372  0.91663267
Zn  -2.43000000  -0.46765371  3.51663267
O  -4.05000000  0.46765372  2.86663267
Zn  -0.81000000  0.46765372  0.91663267
Zn  0.81000000  -0.46765371  3.51663267
O  -0.81000000  0.46765372  2.86663267
Zn  2.43000000  0.46765372  0.91663267
Zn  4.05000000  -0.46765371  3.51663267
O  2.43000000  0.46765372  2.86663267
Zn  -4.05000000  2.33826860  3.51663267
Zn  -2.43000000  3.27357603  0.91663267
Zn  -0.81000000  2.33826860  3.51663267
O  -2.43000000  3.27357603  2.86663267
Zn  0.81000000  3.27357603  0.91663267
Zn  2.43000000  2.33826860  3.51663267
O  0.81000000  3.27357603  2.86663267
Zn  4.05000000  3.27357603  0.91663267
O  4.05000000  3.27357603  2.86663267
Zn	0.7426208203677565	-4.995082083595419	16.341583972982562
Zn	0.6495754106106748	-2.8432219529533453	83.50033126389124
Zn	-3.604025317612971	-4.349363589213513	83.16180679369425
Zn	0.759148798094424	-2.133853748646599	72.71512847874186
Zn	2.260943052317854	2.716370127362704	16.524188311597285
Zn	4.163172524987949	-0.4828655749133537	83.29221259168675
Zn	-4.40457116529116	-2.2268896391458393	24.228114155550973
Zn	3.781197806043714	4.173875538345879	56.31478685969137
Zn	-4.882833888890197	0.5300284531930677	59.47804972995458
Zn	-2.066373373213757	4.592792516919621	81.73622632284737
Zn	-1.3185316169063044	1.974090381440929	32.30636190310725
Zn	-4.34275823254638	-0.9205750618625386	38.941228409259466
Zn	2.5355694583081334	3.0056000137114793	26.80911067720332
Zn	3.333709020835556	-2.6387963693083494	21.663910564581812
Zn	-2.629661706313937	-2.640644328371402	17.898826797416216
Zn	4.9671811236567205	-2.582208394902903	72.5768155626906
Zn	-0.09172133063126253	-0.14203475053433934	34.91186510149556
Zn	-0.3072769126121777	2.44904458150687	72.3000233733186
Zn	-1.5701455902954065	-3.163553977640774	44.62016188921713
Zn	-1.2263418474497234	0.9922728195578756	39.72437264265655
Zn	0.9647701091672545	0.8069769208099569	50.74918782341415
Zn	0.3428761420167836	-3.1782300232239424	89.93719872354835
Zn	0.28301425590484985	3.7105534396413997	76.08186096115851
Zn	1.8101252091422708	3.2796754939342883	67.97295027720857
Zn	-0.2987533452295814	0.44396893862439946	6.50792448834696
Zn	1.038515656023704	3.971423366706258	60.80185594701886
Zn	2.035475438102308	-0.12949237600846253	42.63573425548768
Zn	-3.1049717436390223	3.4640734729772795	49.586169895846304
Zn	-1.5577913867876703	0.31517829552208454	78.2233993239536
Zn	4.046143997241016	3.7889165937963654	21.402610661674558
Zn	1.8139459110532545	-4.443793552430455	47.09394123298943
Zn	4.746775950158293	3.355352583545713	40.91844070217362
Zn	4.341648709514693	4.976102038556258	64.53004491813917
Zn	3.6418020927233883	-0.1678403378735105	48.71467211385583
Zn	3.642692384678556	4.350685557242409	6.930500616339757
Zn	-2.471655592852011	-2.6233394207870675	33.9702240319076
Zn	4.271431633435604	-2.0907332456167627	56.6068036366831
Zn	2.0481749775186264	-0.3218794621236398	81.028860960468
Zn	3.245021259843117	2.1859060293826804	78.90754539842473
Zn	-1.03921981872789	0.539219974596179	25.016187373490183
Zn	1.7108609394414316	3.917936973471978	11.227886134773653
Zn	4.72720365670861	-1.7814164370841068	9.746929965350454
Zn	-3.922093382734295	3.1479076539787982	60.94199076927962
Zn	0.6696993116499783	2.381113804859072	44.08213521055765
Zn	0.008594720653515964	-1.9135252030599648	66.18715336271575
Zn	-4.819469579611102	-3.1441378710333256	27.458497490500502
Zn	-1.1893586106322895	-0.12263680645627328	75.29730432076254
Zn	2.2909002940107293	1.5556572749343616	10.219861889351463
Zn	3.0074394767832118	-4.553770957223713	26.523212347240765
Zn	1.7310632629485578	-1.9209898783190593	8.735074217940518
Zn	2.7266910640906605	4.886429148833715	52.69400936002131
Zn	1.8135029383931034	0.3495153174732968	62.42718120881507
Zn	3.6859996291490855	4.986795681317755	13.373622687141124
Zn	2.3726172987144416	-4.89887977709939	84.47729348647037
Zn	4.3761178409855095	-1.9203364777312237	24.937017799193285
Zn	3.8594640487209997	1.7080256788992028	76.40109432108734
Zn	-4.896075365442907	2.5472907543723	64.9994225003181
Zn	0.7067467098048308	-4.569253640107651	56.815866082817784
Zn	2.093207117541615	1.4349824952242507	6.949592310598369
Zn	4.829326481589305	4.418700262704361	74.34179282222482
Zn	0.6827153958998089	-0.6881435763714556	29.718891330862228
Zn	3.895914882316479	4.718363136847856	47.5869846469351
Zn	4.516694043899307	1.485472456304513	51.919016788015966
Zn	-1.8157490733577109	-3.0137453009773285	87.42064585268415
Zn	0.022029954633500104	3.9607813822365046	41.39452993403353
Zn	3.3773454804677883	-2.244372027861463	78.4509503966692
Zn	-3.085573909134909	-4.465176779327562	76.28662716619782
Zn	1.3799411333464828	-3.391587374527023	62.11839776462135
Zn	4.871473653191327	1.3287465031412342	18.817109601521793
Zn	-1.58525701305684	-3.193692159968484	68.62594775844946
Zn	-2.177057565991829	2.4362075510111154	29.640710172031742
Zn	3.145737673327284	3.358795439768871	71.56627509752566
Zn	3.2150615691064672	-3.883668347981266	16.295468798292134
Zn	-1.8519656310747012	0.5580995173005281	52.66640043754406
Zn	-2.810399938566579	1.2962818422432942	6.738600801018041
Zn	-0.9558035767775541	-4.524975216565128	81.80953630350646
Zn	0.10392882411003512	-0.17531993741058471	89.8502750820457
Zn	-1.6206769708088786	2.773571429167059	12.598843306785362
Zn	-2.4202326944261787	0.8442093559755754	84.77150479033011
Zn	-2.343407387648513	-3.0018775571258827	14.529255929094745
Zn	-1.984211432571592	-0.14074383290218861	16.368567239932197
Zn	4.944527792120748	-0.4268104225778231	65.0641638458119
Zn	1.0611759950083277	-3.3484748885525106	12.937403857602458
Zn	-4.984809684954432	1.3561186100288065	36.99533464186264
Zn	-1.6477219659773312	-1.8643307838314604	40.93485631584554
Zn	-0.88254824877197	3.808263035273436	27.620483138176247
Zn	-1.600098290270564	-4.992221306080689	55.34258907652844
Zn	4.073475632538715	-3.2709096863582654	59.70231174525969
Zn	2.3409671807316634	-4.630389671254489	42.90163218056614
Zn	0.2416236983328579	0.1445987018629964	11.883477493588057
Zn	3.5738738828209513	0.7226727145786027	12.607464887777864
Zn	-4.250160146591638	-3.584394498230945	60.83178551151989
Zn	3.563018433024874	-4.102234396945288	70.81335462567537
Zn	2.664700861927587	4.5331604666315695	29.15118165194667
Zn	-4.160151229650005	-3.9307334986022258	10.919477610684549
Zn	2.082517569663727	1.316546056671104	55.86913719915584
Zn	-2.4766212455730763	3.3171836587709826	87.40119143253688
Zn	-4.13766653627702	4.480253254339928	46.53242066353661
Zn	-4.2786073203838875	3.5815766751057723	7.275156640944018
Zn	-4.759708202265864	3.10244302537383	20.974723588024794
O	3.959741572306596	2.852631327561726	37.571346424328844
O	-4.7346713513983225	-1.690070620193953	35.65802787567614
O	-2.324797911938634	-4.5084431698300325	47.859771520806056
O	4.855580421776667	-1.8956447252499142	49.87342297405055
O	-2.0748157428015968	-2.889698640450058	83.41367425622302
O	1.873886243911067	1.047429297816862	65.88191165726269
O	-1.6865153137595534	2.119981059867002	47.240373661233996
O	1.1192518818185064	3.220704743339356	21.89857328822815
O	-0.9125401857927251	3.0019588955708265	60.295639445755185
O	1.1841357522958766	1.7470612475930096	60.40342347075277
O	-4.3618765983937635	4.118685412920325	69.92783820149546
O	-1.686193190015135	-2.359236350070868	11.19113812920413
O	-4.867805865740314	-1.689297119974127	32.770924727303665
O	0.6821981314087715	-2.7177622526890266	48.52123547548309
O	4.52365525039901	-3.8010422624470075	28.891722048852614
O	-3.7498801880205224	1.4862064579770573	14.174397588471914
O	1.964578062821647	-1.8688567259509425	60.72671273580044
O	-4.956854586160359	-2.079086935336405	77.25839048181712
O	4.627264262549499	-3.764542757731726	32.80590470425766
O	0.9778672605646062	1.993701607939089	79.7092594346321
O	3.393047711717056	0.3655753688514096	38.5392488645711
O	-1.8982228892917163	0.6653158386715718	48.17454496547049
O	3.2706180350691927	2.7852508237408413	57.965351036639454
O	2.046592954966635	-3.59720996212209	37.43588861786831
O	2.0015487563673577	-2.0679141116988475	11.093255604077083
O	3.4372688338040795	0.7720989239572056	25.77604070718658
O	2.112963833930081	-2.379307370621777	43.95040225674021
O	4.023698814331844	1.033800485762959	72.59758611487753
O	-4.650927888223093	-2.724645185189869	64.08079234867503
O	2.1042457442690843	-4.65571615651267	23.18731554764453
O	-4.790712211532111	0.9406367664190052	57.58112000871544
O	0.6318491877524224	0.613797353247385	8.50284720009688
O	-3.710987205336096	3.2014629955253486	53.331109545926665
O	-4.789330361298401	1.6300780224900135	87.52536243279592
O	-1.1139039911135518	2.927258819138121	19.552183278841902
O	2.0705973138433675	-0.5757760186386047	19.7138912423609
O	-1.7056881352234088	-4.349783470344331	21.37640019384613
O	1.8147775526556575	0.4621181459374668	21.659323292515086
O	-1.3512725881856613	-2.2939980967045104	71.48606107573718
O	-4.031716855892327	1.0003446478109224	9.16630371436059
O	-2.1918235540989084	-1.9090923461450204	77.64632474028964
O	1.6503930350614926	3.9417721595657973	69.9825149911394
O	-0.5583326222161471	-2.008681789682587	39.027521103125224
O	-1.847786318506368	-4.34678539066653	41.44052588628349
O	3.134207819986587	1.506446159547048	24.68815577107761
O	4.855647138414179	-2.4408864360775495	13.927227065502276
O	-2.6115169739088806	-0.7178433764086627	89.50871028866516
O	1.2100167589812099	4.539283662053727	27.244784914956686
O	-4.152173094887493	1.1563444093654907	81.55678542974302
O	-0.44915208924528116	-2.2084960397922115	37.02746166089348
O	0.2262124711251623	1.2531611146602089	63.29220590368556
O	4.6973573195636025	3.864318736466167	32.49531349988888
O	2.5986724317915506	-1.3345375433158835	23.315494580575198
O	-0.7930482747065115	1.5661505125149588	28.65272739401155
O	-0.22695244039056028	-3.2414810884523293	51.134739742621335
O	-4.832835264765438	2.6701573171559296	67.30633801784228
O	3.7210499998115196	2.019732939088545	67.41044392902234
O	-1.0866231059558928	1.4885069036071137	7.958359115335352
O	-0.13861170387179556	-0.028056384831661063	19.20615577714678
O	1.6726857412171885	1.2865788029132013	30.441899686520742
O	1.5407122228610266	-3.642739524699543	39.32270200042352
O	-0.7925923356408715	0.4378433693879451	64.36356205736752
O	-2.919637912799322	2.2381292123841128	16.993727702139807
O	4.8957583555671285	3.9854773560504917	15.560254217764372
O	-3.5766500894709297	-4.741488547419648	20.09193353895809
O	-2.573945870488439	2.3317800112937963	81.06207420935725
O	1.584974850126219	-0.2950297417553749	78.51657945081972
O	-0.09845933478558067	-2.9787092649817914	14.589739865048138
O	-1.881411351344373	-2.7153280168712834	49.8627938775824
O	1.3393796697692917	-2.0741149335082354	14.866693476134854
O	-4.746962275502971	-1.1902192087200225	87.76595420591157
O	-3.330239829338071	-2.0190810666676384	44.86393613858534
O	2.353286960380192	4.803834443151247	78.8129066351361
O	-0.3021469661472498	1.9477033592305748	23.452864939271414
O	-0.7558457975320927	-3.750590860983134	37.10313982811963
O	2.5698638772511124	-1.5429377430825486	87.48024961293962
O	3.658150868551724	-4.759706253431326	67.93330393922813
O	4.675251316281875	2.9608032131948603	80.00729524814366
O	3.229233842868336	-1.9788087885180983	43.100383735589354
O	-3.0462744614892245	-3.3696924518988025	47.99613039452993
O	-0.615962455316903	-0.16955419297353114	14.53066679552193
O	-1.36301027070574	4.016508933634878	58.1110408395981
O	-0.6574506594922109	-4.096880045367679	25.196653184852252
O	4.70180802179364	2.7596137596847896	58.91801445370885
O	4.905019776907908	4.54399012520561	88.02778079389786
O	1.1858387022761852	4.959724289883631	46.6557493599293
O	3.178243038195518	-3.6720739993272167	79.94577470228664
O	0.002741340271937176	-0.342116336632607	73.75299251410748
O	-4.398265056089537	-2.0839623287526443	82.2121769923404
O	0.6034862769027534	1.8573740984733504	87.0873791834041
O	3.3248783455565487	-3.4909826808164457	34.2172798023381
O	-1.2560873620268231	-1.7034965802666013	30.772717867076942
O	-3.9535963489274084	0.9765434930284389	75.8760234056266
O	-0.5209043205631652	4.0893948355394745	24.49396345152354
O	3.7007974754256896	3.1398780365015355	34.67074521734155
O	3.8451488654883352	-0.8294207588320006	28.17243610425423
O	0.6651012067800677	-2.4027611555822403	34.539332669722256
O	-3.0590069822707666	-3.54839612519553	62.865932444052575
O	-3.8442497531497843	-4.897201708940873	89.42742438525408
O	0.9083670265290422	-3.5963546052704376	86.79368697853994