323
# Voronoi polycrystal with 100 grains
O  19.60697577  19.34490228  18.54118639
O  19.79603896  13.90701857  19.91467678
O  19.01358981  16.24434909  17.81175990
Zn  19.99537394  18.43644564  14.89098730
O  18.23114065  18.58167961  15.70884303
O  19.86402361  18.91273694  12.97328198
O  19.20265300  10.80646537  19.18525029
O  18.42020385  13.14379589  17.08233342
Zn  19.40198798  15.33589245  14.16156081
O  17.63775469  15.48112641  14.97941655
Zn  18.61953882  17.67322296  12.05864394
O  19.27063765  15.81218374  12.24385550
O  16.85530554  17.81845693  12.87649968
O  18.48818850  18.14951426  10.14093862
O  17.82681789  10.04324270  16.35290694
Zn  18.80860202  12.23533925  13.43213433
O  19.45970085  10.37430003  13.61734588
O  17.04436873  12.38057321  14.24999006
Zn  18.02615286  14.57266977  11.32921746
O  18.67725169  12.71163055  11.51442901
O  16.26191957  14.71790373  12.14707319
O  15.47947042  17.05523425  10.04415632
Zn  17.43276690  11.47211657  10.59979097
O  15.66853361  11.61735054  11.41764671
Zn  19.08191907  17.58068570  19.27163510
Zn  16.66658696  19.58695889  19.90427928
Zn  18.29946992  19.91801622  17.16871823
Zn  18.48853311  14.48013251  18.54220862
Zn  16.07320100  16.48640569  19.17485280
O  16.72429983  14.62536647  19.36006435
O  14.30896771  16.63163966  19.99270853
Zn  17.70608396  16.81746303  16.43929174
Zn  15.29075184  18.82373621  17.07193592
O  15.94185067  16.96269699  17.25714748
O  13.52651855  18.96897018  17.88979166
Zn  16.92363480  19.15479354  14.33637487
O  15.15940151  19.30002751  15.15423061
Zn  17.89514715  11.37957931  17.81278213
Zn  15.47981504  13.38585250  18.44542631
O  16.13091387  11.52481328  18.63063787
O  13.71558175  13.53108646  19.26328205
Zn  17.11269800  13.71690983  15.70986526
Zn  14.69736588  15.72318302  16.34250944
O  15.34846471  13.86214380  16.52772099
O  12.93313259  15.86841698  17.16036517
Zn  16.33024884  16.05424035  13.60694839
Zn  13.91491672  18.06051353  14.23959257
O  14.56601555  16.19947431  14.42480412
O  12.15068343  18.20574750  15.05744830
Zn  15.54779968  18.39157087  11.50403152
O  13.78356640  18.53680483  12.32188725
Zn  14.88642907  10.28529930  17.71599983
O  13.12219579  10.43053327  18.53385556
Zn  16.51931204  10.61635664  14.98043878
Zn  14.10397992  12.62262982  15.61308295
O  14.75507875  10.76159060  15.79829451
O  12.33974663  12.76786378  16.43093869
Zn  15.73686288  12.95368715  12.87752190
Zn  13.32153076  14.95996034  13.51016608
O  13.97262959  13.09892112  13.69537764
O  11.55729747  15.10519430  14.32802182
Zn  14.95441372  15.29101767  10.77460503
Zn  12.53908161  17.29729086  11.40724921
O  13.19018044  15.43625164  11.59246077
O  10.77484832  17.44252482  12.22510495
Zn  12.72814480  11.85940714  12.78073960
O  10.96391151  12.00464111  13.59859533
Zn  14.36102776  12.19046448  10.04517855
O  12.59679448  12.33569844  10.86303428
Zn  13.00146186  17.20475360  18.62024037
O  11.23722857  17.34998756  19.43809610
Zn  12.21901270  19.54208411  16.51732350
O  10.45477941  19.68731808  17.33517923
Zn  13.19052505  11.76686988  19.99373076
Zn  12.40807590  14.10420040  17.89081389
O  10.64384261  14.24943437  18.70866962
Zn  11.62562674  16.44153092  15.78789701
Zn  10.84317758  18.77886144  13.68498014
Zn  10.18180697  10.67258987  19.89694845
Zn  11.81468994  11.00364721  17.16138740
O  10.05045665  11.14888117  17.97924314
Zn  11.03224078  13.34097772  15.05847053
Zn  10.16236628  15.79792900  11.84101687
O  37.10057340  19.77457561  14.72892808
O  39.53427510  18.23214705  16.21068723
O  39.82424479  19.10925845  13.10517710
Zn  37.56559768  18.39696997  16.07341873
O  36.81693852  16.68369300  15.51962140
Zn  37.85556737  19.27408137  12.96790860
Zn  36.14277782  17.79622540  10.70042240
O  37.10690821  17.56080440  12.41411127
O  35.39411866  16.08294843  10.14662507
Zn  39.99929938  16.85454141  17.55517788
Zn  38.28650983  15.37668543  15.28769168
O  37.53785067  13.66340846  14.73389435
Zn  38.57647952  16.25379683  12.18218155
O  39.54060991  16.01837584  13.89587042
O  37.82782036  14.54051986  11.62838422
O  39.83057959  16.89548723  10.79036029
Zn  35.85914294  14.70534278  11.49111572
O  35.11048378  12.99206581  10.93731839
Zn  38.29284464  13.16291422  12.97287487
Zn  36.58005509  11.68505825  10.70538867
O  37.54418547  11.44963725  12.41907754
Zn  39.01375679  10.14262968  12.18714781
O  36.47251230  19.70947593  17.66302722
O  35.87912634  16.60892273  16.93360074
O  35.09667719  18.94625325  14.83068387
O  34.50329123  15.84570006  14.10125738
O  33.72084207  18.18303057  11.99834051
O  33.90990527  12.74514686  13.37183090
O  33.12745611  15.08247738  11.26891403
O  32.53407015  11.98192418  10.53948754
Zn  35.94745561  17.94525935  18.39347593
Zn  33.53212349  19.95153253  19.02612011
O  34.18322232  18.09049331  19.21133167
Zn  32.93873753  16.85097934  18.29669363
O  33.58983636  14.98994012  18.48190518
O  31.17450424  16.99621330  19.11454936
Zn  34.57162049  17.18203667  15.56113258
Zn  32.15628837  19.18830986  16.19377676
O  32.80738720  17.32727064  16.37898831
O  30.39205509  19.33354382  17.01163249
Zn  33.78917133  19.51936719  13.45821571
O  32.02493805  19.66460115  14.27607144
Zn  32.34535157  13.75042614  17.56726715
O  30.58111828  13.89566011  18.38512288
Zn  33.97823453  14.08148348  14.83170609
Zn  31.56290241  16.08775666  15.46435027
O  32.21400124  14.22671744  15.64956183
Zn  33.19578537  16.41881399  12.72878922
Zn  30.78045326  18.42508718  13.36143340
O  31.43155209  16.56404796  13.54664496
Zn  32.41333622  18.75614451  10.62587235
O  30.64910293  18.90137848  11.44372809
Zn  31.75196561  10.64987295  16.83784066
Zn  33.38484857  10.98093028  14.10227961
Zn  30.96951645  12.98720347  14.73492379
O  31.62061528  11.12616425  14.92013534
Zn  32.60239941  13.31826080  11.99936274
Zn  30.18706730  15.32453398  12.63200692
O  30.83816613  13.46349476  12.81721847
O  30.05571697  15.80082528  10.71430160
Zn  32.00901345  10.21770760  11.26993625
O  30.24478017  10.36294157  12.08779199
Zn  30.64944755  15.23199672  19.84499808
Zn  30.05606159  12.13144353  19.11557159
Zn  38.07656316  16.90600247  19.87859755
O  38.69525135  16.99908120  17.99969861
Zn  39.69574219  15.35270440  17.54126481
O  38.52148435  13.81034437  17.75279275
Zn  36.73815496  14.42848115  18.35224517
Zn  34.00783665  13.08321661  17.35483590
O  35.56389712  12.88612112  18.56377311
O  32.83357881  11.54085658  17.56636384
Zn  39.29470626  12.58500886  19.10274859
Zn  36.56438796  11.23974432  18.10533932
O  38.12044842  11.04264884  19.31427653
Zn  38.35733399  12.87518308  16.01491243
Zn  35.62701569  11.52991853  15.01750316
O  37.18307615  11.33282305  16.22644037
O  36.24570389  11.62299726  13.13860421
Zn  33.60680072  10.31552107  18.91631968
Zn  32.66942845  10.60569529  15.82848352
O  17.94750191  38.45412355  18.08053503
Zn  12.44381551  39.01249834  13.39539324
O  13.18596889  38.47537707  15.15107233
Zn  16.01140773  38.46274073  17.66440393
Zn  14.82768053  37.40055566  14.88416063
O  14.38610672  35.80124932  13.85959644
Zn  15.42665920  38.99928312  12.13045494
O  16.16881258  38.46216186  13.88613404
O  14.98508538  37.39997678  11.10589074
Zn  17.21154555  35.78861298  16.37292803
Zn  18.99425142  38.44952552  16.39946563
Zn  17.81052422  37.38734044  13.61922234
O  18.55267760  36.85021918  15.37490143
O  17.36895040  35.78803410  12.59465814
Zn  18.40950289  38.98606791  10.86551664
O  19.15165627  38.44894664  12.62119574
O  19.75281543  34.17609143  14.08342554
Zn  15.43285622  35.79665129  12.17852704
Zn  17.81672125  34.18470861  13.66729444
O  17.37514743  32.58540227  12.64273024
Zn  18.41569991  35.78343608  10.91358874
O  10.14371675  35.90605131  10.17793452
Zn  11.75513282  38.89995022  11.83323134
O  12.62086769  37.15278144  11.85334109
O  12.34065972  39.89703807  10.22553918
O  15.17060096  38.39819390  10.28956102
Zn  11.23381791  35.73967765  11.82283550
Zn  11.58660819  32.99410335  10.21145077
Zn  14.06375914  34.24083348  11.88685734
Zn  13.78355117  36.98509011  10.25905544
O  14.64928604  35.23792133  10.27916519
Zn  16.09217749  32.32597337  10.31268144
O  19.22884938  30.22066971  15.79420561
Zn  19.29717864  31.55700632  17.25408081
Zn  17.92134352  30.79378365  14.42173745
Zn  16.54550841  30.03056097  11.58939410
O  10.14845007  30.28955201  11.32033031
O  10.77696524  33.16645278  12.67162991
O  10.29180357  36.71752285  16.98988414
O  11.40548040  36.04335356  14.02292952
O  10.92031874  39.59442363  18.34118375
O  12.03399557  38.92025433  15.37422913
Zn  10.64681768  30.43326448  18.55108936
O  11.05362970  31.18371043  16.76418285
Zn  10.53187377  31.23231680  13.01911835
O  12.16730653  30.50954113  13.79722824
Zn  11.27533285  33.31016526  19.90238897
Zn  10.04671211  34.78338687  17.33737257
Zn  12.38900968  32.63599596  16.93543435
O  11.68214487  34.06061120  18.11548246
O  14.02444244  31.91322029  17.71354424
Zn  11.16038893  34.10921758  14.37041795
Zn  13.50268651  31.96182666  13.96847974
O  12.79582170  33.38644190  15.14852785
O  15.13811927  31.23905099  14.74658963
Zn  12.27406576  33.43504828  11.40346334
O  13.90949852  32.71227261  12.18157323
Zn  10.67522727  37.66028765  18.68867218
Zn  13.01752485  35.51289673  18.28673396
O  12.31066004  36.93751197  19.46678207
O  14.65295761  34.79012106  19.06484385
Zn  11.78890410  36.98611835  15.72171756
Zn  14.13120167  34.83872744  15.31977935
O  13.42433686  36.26334268  16.49982746
O  15.76663444  34.11595176  16.09788924
Zn  13.64604001  38.38979751  19.63803357
Zn  12.41741927  39.86301912  17.07301717
Zn  14.75971684  37.71562821  16.67107895
O  14.05285203  39.14024345  17.85112706
O  16.39514960  36.99285254  17.44918885
Zn  14.40786614  32.85598508  19.41233228
Zn  16.75016371  30.70859417  19.01039407
Zn  15.52154297  32.18181578  16.44537767
O  17.15697573  31.45904011  17.22348756
Zn  16.63521980  31.50764649  13.47842306
Zn  16.15005814  35.05871656  17.79667728
Zn  18.49235571  32.91132564  17.39473906
O  17.78549090  34.33594089  18.57478717
Zn  16.77857330  37.93561733  19.14797689
Zn  19.12087088  35.78822642  18.74603867
O  18.41400607  37.21284166  19.92608678
O  39.17634041  32.96369225  10.26240271
O  37.86580461  30.26185334  11.47902198
Zn  39.47843190  37.32747423  11.65029592
O  39.82949485  35.44996205  12.17317527
O  38.87336532  38.32464007  13.21300341
O  38.07083681  37.38349385  10.25844900
Zn  39.92655414  32.69210352  14.78164146
O  39.32148755  33.68926937  16.34434895
Zn  39.12402563  31.75095730  11.82708705
Zn  38.16789610  34.62563532  12.86691519
O  38.51895905  32.74812314  13.38979454
O  37.56282952  35.62280117  14.42962268
Zn  36.40923806  36.55916712  10.95218892
O  36.76030101  34.68165494  11.47506827
O  35.80417148  37.55633297  12.51489641
O  38.01095175  30.98743047  17.56096823
Zn  36.85736030  31.92379642  14.08353446
O  37.20842324  30.04628424  14.60641381
O  36.25229371  32.92096227  15.64624196
Zn  36.05483179  30.98265019  11.12898005
Zn  35.09870226  33.85732822  12.16880819
O  35.44976521  31.97981604  12.69168754
O  34.49363568  34.85449407  13.73151568
O  34.94175791  30.21912336  16.86286123
Zn  39.62357905  38.05305135  17.73224216
O  39.97464199  36.17553917  18.25512151
O  39.01851246  39.05021720  19.29494965
Zn  38.82105054  37.11190512  14.77768775
Zn  37.86492101  39.98658315  15.81751589
O  38.21598395  38.10907097  16.34039524
Zn  37.06239250  39.04543692  12.86296148
Zn  39.26917277  32.47653442  17.90903330
Zn  38.31304324  35.35121245  18.94886144
O  38.66410619  33.47370027  19.47174079
Zn  37.51051474  34.41006622  15.99430703
Zn  36.55438521  37.28474425  17.03413517
O  36.90544815  35.40723207  17.55701452
O  35.94931862  38.28191009  18.59684266
Zn  35.75185670  36.34359802  14.07958076
Zn  34.79572717  39.21827605  15.11940890
O  35.14679011  37.34076387  15.64228825
Zn  36.19997893  31.70822732  17.21092630
Zn  35.24384940  34.58290534  18.25075444
O  35.59491235  32.70539316  18.77363379
O  34.63878282  35.58007119  19.81346193
Zn  34.44132090  33.64175912  15.29620003
Zn  33.48519137  36.51643714  16.33602817
O  33.83625431  34.63892496  16.85890752
O  32.88012478  37.51360299  17.89873566
Zn  32.68266286  35.57529092  13.38147376
Zn  32.17465556  33.81459824  17.55264744
Zn  37.20753965  39.77101405  18.94490773
Zn  34.13834581  39.00270694  18.24680073
O  33.53327922  39.99987279  19.80950822
Zn  32.82781000  36.30086804  19.46342001
Zn  30.90519902  39.46402664  19.57929503
O  30.46362520  37.86472030  18.55473083
O  31.06260387  39.46344776  15.80102514
O  30.47785534  39.99999015  10.26707615
Zn  32.70431551  38.38862635  15.53411344
O  32.26274169  36.78932001  14.50954924
Zn  33.30329417  39.98735381  12.78040774
O  32.86172036  38.38804747  11.75584355
Zn  30.32664751  36.79793719  14.09341814
Zn  30.92562618  38.39666466  11.33971245
O  30.48405236  36.79735832  10.31514825
Zn  33.90846987  38.38344944  10.07477415
O  31.98314977  34.07308712  17.82642156
Zn  33.15399710  30.82729996  16.27913934
O  31.38976381  30.97253392  17.09699507
Zn  32.37154794  33.16463048  14.17622247
O  33.02264677  31.30359126  14.36143402
O  30.60731465  33.30986444  14.99407820
Zn  31.77816198  30.06407728  13.44679598
O  30.01392869  30.20931125  14.26465172
Zn  31.45809308  32.30887054  18.55687027
Zn  30.67564392  34.64620106  16.45395340
Zn  30.08225796  31.54564786  15.72452691
