72
# Voronoi polycrystal with 1 grains
O  -4.05000000  -3.27357602  -4.93336733
O  -0.81000000  -3.27357602  -4.93336733
O  2.43000000  -3.27357602  -4.93336733
O  -2.43000000  -0.46765371  -4.93336733
O  0.81000000  -0.46765371  -4.93336733
O  4.05000000  -0.46765371  -4.93336733
O  -4.05000000  2.33826860  -4.93336733
O  -0.81000000  2.33826860  -4.93336733
O  2.43000000  2.33826860  -4.93336733
Zn  -4.05000000  -3.27357602  -1.68336733
O  -4.05000000  -3.27357602  0.26663267
Zn  -2.43000000  -2.33826859  -4.28336733
Zn  -0.81000000  -3.27357602  -1.68336733
O  -2.43000000  -2.33826859  -2.33336733
O  -0.81000000  -3.27357602  0.26663267
Zn  0.81000000  -2.33826859  -4.28336733
Zn  2.43000000  -3.27357602  -1.68336733
O  0.81000000  -2.33826859  -2.33336733
O  2.43000000  -3.27357602  0.26663267
Zn  4.05000000  -2.33826859  -4.28336733
O  4.05000000  -2.33826859  -2.33336733
Zn  -4.05000000  0.46765372  -4.28336733
Zn  -2.43000000  -0.46765371  -1.68336733
O  -4.05000000  0.46765372  -2.33336733
O  -2.43000000  -0.46765371  0.26663267
Zn  -0.81000000  0.46765372  -4.28336733
Zn  0.81000000  -0.46765371  -1.68336733
O  -0.81000000  0.46765372  -2.33336733
O  0.81000000  -0.46765371  0.26663267
Zn  2.43000000  0.46765372  -4.28336733
Zn  4.05000000  -0.46765371  -1.68336733
O  2.43000000  0.46765372  -2.33336733
O  4.05000000  -0.46765371  0.26663267
Zn  -4.05000000  2.33826860  -1.68336733
O  -4.05000000  2.33826860  0.26663267
Zn  -2.43000000  3.27357603  -4.28336733
Zn  -0.81000000  2.33826860  -1.68336733
O  -2.43000000  3.27357603  -2.33336733
O  -0.81000000  2.33826860  0.26663267
Zn  0.81000000  3.27357603  -4.28336733
Zn  2.43000000  2.33826860  -1.68336733
O  0.81000000  3.27357603  -2.33336733
O  2.43000000  2.33826860  0.26663267
Zn  4.05000000  3.27357603  -4.28336733
O  4.05000000  3.27357603  -2.33336733
Zn  -4.05000000  -3.27357602  3.51663267
Zn  -2.43000000  -2.33826859  0.91663267
Zn  -0.81000000  -3.27357602  3.51663267
O  -2.43000000  -2.33826859  2.86663267
Zn  0.81000000  -2.33826859  0.91663267
Zn  2.43000000  -3.27357602  3.51663267
O  0.81000000  -2.33826859  2.86663267
Zn  4.05000000  -2.33826859  0.91663267
O  4.05000000  -2.33826859  2.86663267
Zn  -4.05000000  0.46765372  0.91663267
Zn  -2.43000000  -0.46765371  3.51663267
O  -4.05000000  0.46765372  2.86663267
Zn  -0.81000000  0.46765372  0.91663267
Zn  0.81000000  -0.46765371  3.51663267
O  -0.81000000  0.46765372  2.86663267
Zn  2.43000000  0.46765372  0.91663267
Zn  4.05000000  -0.46765371  3.51663267
O  2.43000000  0.46765372  2.86663267
Zn  -4.05000000  2.33826860  3.51663267
Zn  -2.43000000  3.27357603  0.91663267
Zn  -0.81000000  2.33826860  3.51663267
O  -2.43000000  3.27357603  2.86663267
Zn  0.81000000  3.27357603  0.91663267
Zn  2.43000000  2.33826860  3.51663267
O  0.81000000  3.27357603  2.86663267
Zn  4.05000000  3.27357603  0.91663267
O  4.05000000  3.27357603  2.86663267
